Circuit: * listato1

Direct Newton iteration for .op point succeeded.

Date: Thu Nov 12 17:57:03 2020
Total elapsed time: 0.283 seconds.

tnom = 27
temp = 27
method = trap
totiter = 10
traniter = 0
tranpoints = 0
accept = 0
rejected = 0
matrix size = 16
fillins = 13
solver = Normal
Matrix Compiler1:      65 opcodes
Matrix Compiler2: 1.54 KB object code size
