Circuit: * C:\Users\giaco\Desktop\es1FdE\spice\esercizio3.asc

.OP point found by inspection.

Date: Sun Dec 13 10:52:30 2020
Total elapsed time: 0.317 seconds.

tnom = 27
temp = 27
method = modified trap
totiter = 41292
traniter = 41292
tranpoints = 20647
accept = 13297
rejected = 7350
matrix size = 5
fillins = 1
solver = Normal
Matrix Compiler1: 222 bytes object code size  0.1/0.1/[0.1]
Matrix Compiler2: off  [0.1]/0.2/0.1

