Circuit: * C:\Users\giaco\Desktop\es1FdE\spice\esercizio2mod.asc

Direct Newton iteration for .op point succeeded.

Date: Tue Nov 10 18:49:52 2020
Total elapsed time: 2.093 seconds.

tnom = 27
temp = 27
method = trap
totiter = 3
traniter = 0
tranpoints = 0
accept = 0
rejected = 0
matrix size = 9
fillins = 0
solver = Normal
Matrix Compiler1: 242 bytes object code size
Matrix Compiler2: 565 bytes object code size
