Circuit: * C:\Users\giaco\Desktop\es1FdE\spice\esercizio2.asc

Direct Newton iteration for .op point succeeded.

Date: Tue Nov 10 09:17:12 2020
Total elapsed time: 2.382 seconds.

tnom = 27
temp = 27
method = trap
totiter = 3
traniter = 0
tranpoints = 0
accept = 0
rejected = 0
matrix size = 8
fillins = 0
solver = Normal
Matrix Compiler1: 210 bytes object code size
Matrix Compiler2: 486 bytes object code size
