Circuit: * C:\Users\giaco\Desktop\es2FdE\spice\Draft1.asc

Direct Newton iteration for .op point succeeded.

Date: Mon Dec 21 17:54:54 2020
Total elapsed time: 0.044 seconds.

tnom = 27
temp = 27
method = trap
totiter = 3
traniter = 0
tranpoints = 0
accept = 0
rejected = 0
matrix size = 3
fillins = 0
solver = Normal
Matrix Compiler1: 86 bytes object code size
Matrix Compiler2: 163 bytes object code size
