Circuit: * Esercizio 1


Date: Wed Dec 23 10:23:04 2020
Total elapsed time: 0.154 seconds.

tnom = 27
temp = 27
method = trap
totiter = 488
traniter = 0
tranpoints = 0
accept = 0
rejected = 0
matrix size = 10
fillins = 1
solver = Normal
Matrix Compiler1: 382 bytes object code size  0.2/0.1/[0.1]
Matrix Compiler2: off  [0.2]/0.2/0.2

