Circuit: * Esercizio 2.1

Instance "m1": Length shorter than recommended for a level 1 MOSFET.
Direct Newton iteration for .op point succeeded.
.step amp=0.065
.step amp=0.066
.step amp=0.067
.step amp=0.068
.step amp=0.069
.step amp=0.07

Date: Wed Dec 23 10:29:29 2020
Total elapsed time: 0.717 seconds.

tnom = 27
temp = 27
method = modified trap
totiter = 2424
traniter = 2416
tranpoints = 1114
accept = 1096
rejected = 18
matrix size = 8
fillins = 0
solver = Normal
Matrix Compiler1:      15 opcodes  0.1/[0.1]/0.1
Matrix Compiler2: off  [0.1]/0.1/0.1

