Circuit: * Esercizio 2

Direct Newton iteration for .op point succeeded.
.step amp=0.39
.step amp=0.4
.step amp=0.41
.step amp=0.42
.step amp=0.43
.step amp=0.44
.step amp=0.45

Date: Wed Dec 23 09:37:57 2020
Total elapsed time: 0.300 seconds.

tnom = 27
temp = 27
method = modified trap
totiter = 2096
traniter = 2089
tranpoints = 1042
accept = 1042
rejected = 0
matrix size = 8
fillins = 0
solver = Normal
Matrix Compiler1:      15 opcodes  0.1/[0.1]/0.1
Matrix Compiler2: 526 bytes object code size  0.1/0.1/[0.1]

